data_h5_0

_cell_length_a		30.071776
_cell_length_b		30.202808
_cell_length_c		34.764939
_cell_angle_alpha	90.377228
_cell_angle_beta	99.060278
_cell_angle_gamma	120.082677
_symmetry_space_group_name_H-M	'P 1'
_symmetry_Int_Tables_number		1

loop_
	_symmetry_equiv_pos_as_xyz
	x,y,z

loop_
	_atom_site_label
	_atom_site_type_symbol
	_atom_site_fract_x
	_atom_site_fract_y
	_atom_site_fract_z
	B0	B	0.091105	0.569670	0.048149
	B1	B	0.865092	0.453015	0.036053
	B2	B	0.412712	0.558251	0.044746
	B3	B	0.530553	0.447489	0.051731
	B4	B	0.424383	0.897987	0.060221
	B5	B	0.534767	0.121588	0.052512
	O6	O	0.588617	0.149879	0.050698
	O7	O	0.373085	0.867415	0.062828
	O8	O	0.835653	0.478080	0.043052
	O9	O	0.117724	0.544231	0.048286
	O10	O	0.511086	0.394175	0.056014
	O11	O	0.436079	0.610221	0.047336
	O12	O	0.124746	0.622498	0.053681
	O13	O	0.832113	0.399377	0.032114
	O14	O	0.447621	0.867510	0.051870
	O15	O	0.514408	0.151451	0.043596
	O16	O	0.359232	0.534813	0.045867
	O17	O	0.585023	0.471728	0.050275
	C18	C	0.924348	0.479759	0.041435
	C19	C	0.033719	0.540269	0.046791
	C20	C	0.497274	0.473449	0.048243
	C21	C	0.444194	0.528681	0.047350
	C22	C	0.503435	0.064887	0.056475
	C23	C	0.454568	0.956855	0.060766
	C24	C	0.450862	0.036248	0.063377
	C25	C	0.507382	0.984744	0.054561
	C26	C	0.951586	0.454032	0.033272
	C27	C	0.005942	0.562370	0.059955
	C28	C	0.522018	0.526430	0.038632
	C29	C	0.417830	0.474813	0.049408
	C30	C	0.004683	0.484800	0.034316
	C31	C	0.950866	0.531691	0.053731
	C32	C	0.427033	0.982596	0.064309
	C33	C	0.531460	0.038421	0.053583
	C34	C	0.495185	0.553350	0.039375
	C35	C	0.444188	0.448160	0.051582
	C36	C	0.603127	0.201484	0.046123
	C37	C	0.364376	0.818602	0.057872
	C38	C	0.786231	0.437946	0.044210
	C39	C	0.169007	0.583348	0.048340
	C40	C	0.548961	0.384201	0.051205
	C41	C	0.398356	0.623335	0.047994
	C42	C	0.173230	0.630223	0.054811
	C43	C	0.783248	0.391634	0.037093
	C44	C	0.410407	0.818096	0.055454
	C45	C	0.555364	0.199895	0.042511
	C46	C	0.351096	0.575673	0.046025
	C47	C	0.593924	0.431287	0.050451
	C48	C	0.648431	0.246831	0.045054
	C49	C	0.319594	0.774416	0.061940
	C50	C	0.742848	0.439956	0.048433
	C51	C	0.213751	0.580617	0.051603
	C52	C	0.548611	0.338681	0.052808
	C53	C	0.402203	0.670111	0.049273
	C54	C	0.218452	0.676477	0.059032
	C55	C	0.741702	0.345590	0.041529
	C56	C	0.408949	0.772966	0.051026
	C57	C	0.551052	0.242947	0.038742
	C58	C	0.308396	0.579873	0.050158
	C59	C	0.641060	0.435293	0.050526
	C60	C	0.646728	0.293960	0.045360
	C61	C	0.315545	0.724400	0.059417
	C62	C	0.695764	0.394011	0.046958
	C63	C	0.263091	0.627342	0.054345
	C64	C	0.595883	0.340409	0.045920
	C65	C	0.358905	0.674622	0.051627
	C66	C	0.266196	0.678018	0.058727
	C67	C	0.695453	0.343343	0.045293
	C68	C	0.363291	0.725526	0.054580
	C69	C	0.597738	0.292058	0.044087
	C70	C	0.309556	0.627416	0.052719
	C71	C	0.644481	0.390048	0.049114
	H72	H	0.420921	0.408637	0.056660
	H73	H	0.518035	0.594193	0.033597
	H74	H	0.570511	0.060118	0.045584
	H75	H	0.385732	0.959849	0.068235
	H76	H	0.928206	0.549923	0.061751
	H77	H	0.026997	0.466162	0.029715
	H78	H	0.377451	0.457773	0.048555
	H79	H	0.564881	0.546499	0.036715
	H80	H	0.021605	0.601207	0.072401
	H81	H	0.933257	0.414954	0.023741
	H82	H	0.530804	0.966264	0.050220
	H83	H	0.429325	0.053056	0.071531
	H84	H	0.512789	0.302734	0.051790
	H85	H	0.442082	0.701774	0.050849
	H86	H	0.685234	0.247954	0.052689
	H87	H	0.285322	0.777504	0.064913
	H88	H	0.747597	0.477345	0.054207
	H89	H	0.207570	0.540845	0.048138
	H90	H	0.274418	0.542427	0.046609
	H91	H	0.673613	0.473986	0.053572
	H92	H	0.220777	0.711511	0.069979
	H93	H	0.751114	0.314502	0.036608
	H94	H	0.445361	0.773141	0.049318
	H95	H	0.512598	0.237351	0.035815
	B96	B	0.188853	0.574557	0.146765
	B97	B	0.961056	0.460405	0.137932
	B98	B	0.512953	0.566569	0.153255
	B99	B	0.633581	0.460046	0.157998
	B100	B	0.530580	0.904389	0.152585
	B101	B	0.634168	0.128282	0.143345
	O102	O	0.684564	0.158669	0.142189
	O103	O	0.475679	0.873602	0.154391
	O104	O	0.932686	0.484473	0.141454
	O105	O	0.218195	0.550487	0.140515
	O106	O	0.610396	0.408057	0.149238
	O107	O	0.539013	0.619818	0.159287
	O108	O	0.222366	0.627299	0.155803
	O109	O	0.926592	0.405787	0.133922
	O110	O	0.548989	0.871062	0.151832
	O111	O	0.612114	0.159330	0.147220
	O112	O	0.458798	0.543784	0.148121
	O113	O	0.688192	0.483283	0.164422
	C114	C	1.020389	0.488756	0.141457
	C115	C	0.130541	0.547716	0.143272
	C116	C	0.605166	0.491302	0.157489
	C117	C	0.546386	0.540554	0.153443
	C118	C	0.606724	0.069095	0.143822
	C119	C	0.558597	0.963748	0.149243
	C120	C	0.555696	0.041424	0.148113
	C121	C	0.610721	0.991525	0.142929
	C122	C	1.046335	0.465303	0.127260
	C123	C	0.105768	0.571325	0.156648
	C124	C	0.631257	0.546619	0.167082
	C125	C	0.522368	0.487938	0.145289
	C126	C	0.098968	0.494239	0.127259
	C127	C	1.051804	0.542286	0.155490
	C128	C	0.529807	0.989739	0.152330
	C129	C	0.635655	0.043885	0.144290
	C130	C	0.601775	0.570510	0.161699
	C131	C	0.552380	0.463627	0.145414
	C132	C	0.695805	0.209490	0.141917
	C133	C	0.466099	0.825268	0.156076
	C134	C	0.882195	0.445456	0.146274
	C135	C	0.267816	0.588629	0.144292
	C136	C	0.650772	0.397822	0.151886
	C137	C	0.499294	0.629124	0.156839
	C138	C	0.271001	0.634869	0.150243
	C139	C	0.881443	0.399609	0.139297
	C140	C	0.508513	0.820862	0.151018
	C141	C	0.650001	0.208789	0.141867
	C142	C	0.448766	0.583643	0.148664
	C143	C	0.698575	0.444677	0.159579
	C144	C	0.743060	0.255012	0.147360
	C145	C	0.420131	0.780929	0.158692
	C146	C	0.838333	0.446570	0.149693
	C147	C	0.311362	0.585804	0.140764
	C148	C	0.647099	0.351363	0.149193
	C149	C	0.502202	0.674453	0.160525
	C150	C	0.317757	0.679121	0.158646
	C151	C	0.837463	0.352196	0.140417
	C152	C	0.508432	0.775181	0.150056
	C153	C	0.649463	0.252895	0.148237
	C154	C	0.402655	0.582964	0.144461
	C155	C	0.744748	0.445428	0.162477
	C156	C	0.743660	0.301852	0.148214
	C157	C	0.414048	0.730893	0.155623
	C158	C	0.792758	0.399337	0.150330
	C159	C	0.358325	0.633587	0.145832
	C160	C	0.694488	0.349690	0.151104
	C161	C	0.457071	0.678946	0.151269
	C162	C	0.362360	0.682627	0.151620
	C163	C	0.789250	0.349753	0.144575
	C164	C	0.462083	0.729473	0.153145
	C165	C	0.696182	0.301445	0.149029
	C166	C	0.405570	0.631335	0.147262
	C167	C	0.745326	0.399299	0.157037
	H168	H	0.531243	0.422902	0.141560
	H169	H	0.625414	0.612432	0.166246
	H170	H	0.676628	0.064355	0.142434
	H171	H	0.487162	0.970174	0.151312
	H172	H	1.032971	0.563875	0.163539
	H173	H	0.122646	0.479556	0.114802
	H174	H	0.478533	0.466468	0.137501
	H175	H	0.674022	0.567628	0.175933
	H176	H	0.129559	0.610073	0.171739
	H177	H	1.019413	0.424459	0.112280
	H178	H	0.633836	0.973588	0.142911
	H179	H	0.535866	0.060798	0.145015
	H180	H	0.609433	0.315694	0.144201
	H181	H	0.538332	0.707689	0.174284
	H182	H	0.776518	0.250012	0.149443
	H183	H	0.385403	0.787124	0.156178
	H184	H	0.837712	0.481094	0.141475
	H185	H	0.307231	0.550011	0.133884
	H186	H	0.366566	0.546105	0.142201
	H187	H	0.779719	0.481655	0.172434
	H188	H	0.317962	0.714740	0.163565
	H189	H	0.839152	0.318951	0.137464
	H190	H	0.545539	0.777466	0.152136
	H191	H	0.613120	0.248374	0.153283
	B192	B	0.134383	0.554806	0.246206
	B193	B	0.912924	0.440858	0.247047
	B194	B	0.463478	0.549091	0.251820
	B195	B	0.580283	0.439121	0.257482
	B196	B	0.469368	0.883467	0.257917
	B197	B	0.579175	0.106005	0.248645
	O198	O	0.631976	0.137190	0.250408
	O199	O	0.414992	0.851574	0.254851
	O200	O	0.881793	0.464612	0.248510
	O201	O	0.162371	0.532685	0.241144
	O202	O	0.557369	0.384482	0.255225
	O203	O	0.484881	0.601109	0.251702
	O204	O	0.164362	0.608098	0.248828
	O205	O	0.883551	0.387715	0.248088
	O206	O	0.491485	0.853663	0.257445
	O207	O	0.555363	0.136343	0.248328
	O208	O	0.410300	0.528396	0.248628
	O209	O	0.635097	0.462135	0.257656
	C210	C	0.970292	0.471777	0.245483
	C211	C	0.075550	0.524508	0.248617
	C212	C	0.547498	0.464597	0.254994
	C213	C	0.491896	0.517455	0.249095
	C214	C	0.550657	0.049604	0.251501
	C215	C	0.498373	0.941363	0.257270
	C216	C	0.496001	0.020466	0.251884
	C217	C	0.552604	0.969499	0.260067
	C218	C	0.995376	0.443611	0.240732
	C219	C	0.049202	0.551856	0.248280
	C220	C	0.575057	0.518997	0.259899
	C221	C	0.463049	0.462003	0.243454
	C222	C	0.049608	0.471023	0.245116
	C223	C	0.995621	0.525852	0.249146
	C224	C	0.470878	0.966633	0.254569
	C225	C	0.578032	0.022943	0.256314
	C226	C	0.546872	0.543824	0.258025
	C227	C	0.491437	0.435674	0.244893
	C228	C	0.642307	0.186055	0.245210
	C229	C	0.405666	0.802560	0.256065
	C230	C	0.831977	0.423971	0.252827
	C231	C	0.213894	0.572424	0.242468
	C232	C	0.595298	0.374451	0.253165
	C233	C	0.446230	0.612513	0.250670
	C234	C	0.214933	0.618355	0.246600
	C235	C	0.834665	0.377774	0.251572
	C236	C	0.451596	0.801415	0.257402
	C237	C	0.595018	0.185193	0.243999
	C238	C	0.399576	0.565893	0.248475
	C239	C	0.644198	0.421335	0.255017
	C240	C	0.687219	0.230332	0.244872
	C241	C	0.358605	0.758100	0.253945
	C242	C	0.786878	0.423460	0.254157
	C243	C	0.257408	0.567261	0.243519
	C244	C	0.594768	0.327542	0.250915
	C245	C	0.448764	0.657934	0.250548
	C246	C	0.261380	0.665238	0.248311
	C247	C	0.791249	0.331588	0.251757
	C248	C	0.453430	0.757164	0.256936
	C249	C	0.594645	0.231197	0.246774
	C250	C	0.351810	0.564345	0.244051
	C251	C	0.688629	0.421739	0.253273
	C252	C	0.692083	0.280685	0.249619
	C253	C	0.358596	0.712017	0.252345
	C254	C	0.738025	0.375422	0.254570
	C255	C	0.304687	0.614575	0.246131
	C256	C	0.641121	0.326200	0.250707
	C257	C	0.401902	0.660152	0.249512
	C258	C	0.308176	0.664780	0.248858
	C259	C	0.741882	0.330403	0.252679
	C260	C	0.402985	0.708933	0.253416
	C261	C	0.642546	0.279627	0.249535
	C262	C	0.352121	0.612135	0.245264
	C263	C	0.691027	0.374028	0.254512
	H264	H	0.473713	0.396238	0.240433
	H265	H	0.566245	0.586002	0.263478
	H266	H	0.618722	0.043792	0.257454
	H267	H	0.430277	0.947631	0.256487
	H268	H	0.974000	0.545583	0.250696
	H269	H	0.072445	0.454343	0.239480
	H270	H	0.421241	0.440282	0.230954
	H271	H	0.617778	0.540832	0.262600
	H272	H	0.069701	0.594200	0.247519
	H273	H	0.977024	0.404973	0.240230
	H274	H	0.571768	0.947537	0.258905
	H275	H	0.475603	0.042618	0.251543
	H276	H	0.555761	0.292497	0.250198
	H277	H	0.487696	0.691640	0.251002
	H278	H	0.722379	0.229849	0.248479
	H279	H	0.322984	0.760918	0.248558
	H280	H	0.783685	0.458353	0.252015
	H281	H	0.253903	0.530601	0.240384
	H282	H	0.317283	0.527636	0.244333
	H283	H	0.719890	0.459823	0.256322
	H284	H	0.258669	0.698367	0.252499
	H285	H	0.792934	0.295882	0.248529
	H286	H	0.491983	0.762504	0.259901
	H287	H	0.558203	0.225463	0.252009
	B288	B	0.081626	0.515311	0.342513
	B289	B	0.856734	0.400721	0.353668
	B290	B	0.399406	0.493949	0.347274
	B291	B	0.510898	0.378390	0.340381
	B292	B	0.430049	0.837067	0.353325
	B293	B	0.535043	0.058926	0.351638
	O294	O	0.589040	0.097187	0.358685
	O295	O	0.379681	0.811524	0.358476
	O296	O	0.823544	0.420335	0.354266
	O297	O	0.109566	0.490873	0.341054
	O298	O	0.488938	0.326192	0.333444
	O299	O	0.426690	0.548047	0.354202
	O300	O	0.113107	0.569854	0.340984
	O301	O	0.827251	0.346036	0.353207
	O302	O	0.447834	0.802594	0.353744
	O303	O	0.508391	0.086724	0.341288
	O304	O	0.345885	0.476044	0.337593
	O305	O	0.565635	0.403753	0.346202
	C306	C	0.916432	0.434562	0.353096
	C307	C	0.025803	0.489212	0.348293
	C308	C	0.480390	0.405777	0.346016
	C309	C	0.426477	0.461371	0.347438
	C310	C	0.507966	0.003212	0.354095
	C311	C	0.460147	0.896367	0.354301
	C312	C	0.453666	-0.024947	0.355182
	C313	C	0.514246	0.926090	0.357221
	C314	C	0.944728	0.409868	0.357685
	C315	C	-0.005382	0.512179	0.342349
	C316	C	0.507227	0.460734	0.353584
	C317	C	0.400362	0.406565	0.340133
	C318	C	-0.001939	0.437097	0.355997
	C319	C	0.941232	0.484511	0.343954
	C320	C	0.429950	0.921869	0.352430
	C321	C	0.538525	-0.020954	0.356618
	C322	C	0.480493	0.486233	0.355451
	C323	C	0.424857	0.377233	0.339144
	C324	C	0.592911	0.141702	0.349132
	C325	C	0.364287	0.760122	0.358309
	C326	C	0.776193	0.379304	0.353397
	C327	C	0.159835	0.530287	0.341779
	C328	C	0.530851	0.317384	0.338755
	C329	C	0.390268	0.562581	0.349605
	C330	C	0.162170	0.578457	0.341756
	C331	C	0.776206	0.334112	0.352697
	C332	C	0.407116	0.755782	0.353410
	C333	C	0.544607	0.137950	0.339932
	C334	C	0.341955	0.519220	0.340156
	C335	C	0.577268	0.364638	0.347177
	C336	C	0.637240	0.186982	0.353056
	C337	C	0.317137	0.718590	0.359321
	C338	C	0.730352	0.378523	0.352140
	C339	C	0.201735	0.526055	0.340792
	C340	C	0.533367	0.272972	0.337230
	C341	C	0.395590	0.611184	0.352613
	C342	C	0.208838	0.623060	0.341192
	C343	C	0.734746	0.285904	0.349898
	C344	C	0.403005	0.709155	0.350793
	C345	C	0.539598	0.179257	0.333903
	C346	C	0.296324	0.519675	0.339138
	C347	C	0.626571	0.371536	0.347810
	C348	C	0.636195	0.233806	0.348440
	C349	C	0.306908	0.667776	0.350751
	C350	C	0.682833	0.330091	0.352167
	C351	C	0.249943	0.569856	0.340278
	C352	C	0.582021	0.275466	0.345812
	C353	C	0.348020	0.613266	0.348460
	C354	C	0.255299	0.619582	0.344685
	C355	C	0.684978	0.282778	0.349753
	C356	C	0.353271	0.663237	0.349879
	C357	C	0.585383	0.230103	0.340575
	C358	C	0.297723	0.565979	0.343740
	C359	C	0.632404	0.326169	0.349756
	H360	H	0.399672	0.336927	0.327060
	H361	H	0.505170	0.527196	0.362126
	H362	H	0.581236	0.001081	0.359835
	H363	H	0.387366	0.899457	0.348473
	H364	H	0.915496	0.499249	0.334909
	H365	H	0.019722	0.415997	0.362183
	H366	H	0.356804	0.388035	0.332758
	H367	H	0.548419	0.483550	0.364320
	H368	H	0.016575	0.554650	0.339124
	H369	H	0.925612	0.370737	0.364518
	H370	H	0.534714	0.906916	0.362043
	H371	H	0.428925	-0.007194	0.357120
	H372	H	0.496792	0.236125	0.333010
	H373	H	0.434563	0.643606	0.363917
	H374	H	0.673094	0.189289	0.366412
	H375	H	0.286994	0.727452	0.365171
	H376	H	0.730161	0.414858	0.349714
	H377	H	0.193923	0.486408	0.340257
	H378	H	0.260920	0.484447	0.334087
	H379	H	0.660603	0.411741	0.352074
	H380	H	0.212991	0.658155	0.340861
	H381	H	0.738841	0.251803	0.346304
	H382	H	0.436945	0.706209	0.347204
	H383	H	0.499215	0.171063	0.330969
	B384	B	0.114314	0.449192	0.455876
	B385	B	0.889340	0.335397	0.461873
	B386	B	0.437925	0.433389	0.440510
	B387	B	0.550421	0.322179	0.437778
	B388	B	0.449184	0.771419	0.457233
	B389	B	0.561181	-0.003056	0.456999
	O390	O	0.614353	0.029083	0.459632
	O391	O	0.396049	0.741904	0.453323
	O392	O	0.858920	0.359420	0.460758
	O393	O	0.145715	0.426956	0.457503
	O394	O	0.528135	0.269570	0.436871
	O395	O	0.460362	0.487295	0.444869
	O396	O	0.143199	0.499377	0.449634
	O397	O	0.861549	0.282856	0.468348
	O398	O	0.471793	0.740929	0.457954
	O399	O	0.537988	0.027663	0.456009
	O400	O	0.382439	0.412058	0.441308
	O401	O	0.604946	0.345512	0.443718
	C402	C	0.946337	0.365831	0.460612
	C403	C	0.055325	0.419250	0.458446
	C404	C	0.522778	0.353879	0.439209
	C405	C	0.467834	0.407663	0.435838
	C406	C	0.531820	-0.064250	0.457138
	C407	C	0.476791	0.828878	0.457686
	C408	C	0.479871	-0.088946	0.459819
	C409	C	0.529106	0.854884	0.454467
	C410	C	0.972078	0.338259	0.456063
	C411	C	0.030805	0.445236	0.462867
	C412	C	0.547760	0.408044	0.437204
	C413	C	0.441377	0.353364	0.435235
	C414	C	0.026770	0.364508	0.454657
	C415	C	0.975888	0.419707	0.460229
	C416	C	0.451448	0.857343	0.458341
	C417	C	0.558695	-0.092502	0.455734
	C418	C	0.521868	0.434467	0.436646
	C419	C	0.467235	0.325403	0.434296
	C420	C	0.625057	0.079664	0.457483
	C421	C	0.384433	0.691472	0.452675
	C422	C	0.808546	0.318018	0.461488
	C423	C	0.192452	0.463223	0.450796
	C424	C	0.570109	0.260630	0.441824
	C425	C	0.423367	0.499455	0.444642
	C426	C	0.192930	0.508427	0.446421
	C427	C	0.812561	0.275321	0.464703
	C428	C	0.430899	0.691580	0.455986
	C429	C	0.576738	0.078516	0.453774
	C430	C	0.375386	0.452827	0.443335
	C431	C	0.615705	0.306595	0.444733
	C432	C	0.672530	0.124491	0.461638
	C433	C	0.337094	0.648108	0.450316
	C434	C	0.761858	0.317334	0.455075
	C435	C	0.237206	0.460459	0.449542
	C436	C	0.568644	0.215133	0.445335
	C437	C	0.427746	0.546891	0.447127
	C438	C	0.239890	0.554813	0.445026
	C439	C	0.768535	0.228263	0.463669
	C440	C	0.432619	0.647094	0.456460
	C441	C	0.575525	0.121171	0.451564
	C442	C	0.330226	0.454926	0.442510
	C443	C	0.662210	0.311254	0.447569
	C444	C	0.671809	0.171620	0.460253
	C445	C	0.336194	0.600569	0.449581
	C446	C	0.715484	0.268065	0.453996
	C447	C	0.285852	0.504891	0.446156
	C448	C	0.617291	0.215954	0.450047
	C449	C	0.382001	0.550338	0.447880
	C450	C	0.287565	0.552725	0.446529
	C451	C	0.718442	0.221909	0.457304
	C452	C	0.385131	0.601422	0.450925
	C453	C	0.621919	0.170249	0.455582
	C454	C	0.333681	0.502644	0.445272
	C455	C	0.665980	0.263994	0.450579
	H456	H	0.441956	0.282979	0.435644
	H457	H	0.540879	0.476184	0.435641
	H458	H	0.599065	-0.076083	0.455152
	H459	H	0.408778	0.834714	0.458868
	H460	H	0.955791	0.440170	0.463849
	H461	H	0.046659	0.342315	0.454817
	H462	H	0.398052	0.331671	0.434258
	H463	H	0.587773	0.426664	0.431710
	H464	H	0.053399	0.487856	0.466234
	H465	H	0.950448	0.295133	0.451147
	H466	H	0.547703	0.833705	0.452814
	H467	H	0.458311	-0.069900	0.459261
	H468	H	0.529672	0.181703	0.444948
	H469	H	0.466260	0.581110	0.448242
	H470	H	0.707300	0.122354	0.464816
	H471	H	0.305729	0.654991	0.452252
	H472	H	0.765150	0.353466	0.449341
	H473	H	0.231429	0.422643	0.447849
	H474	H	0.295440	0.419080	0.439672
	H475	H	0.696765	0.346634	0.455090
	H476	H	0.235661	0.587521	0.446327
	H477	H	0.776034	0.197172	0.467918
	H478	H	0.470413	0.650085	0.464297
	H479	H	0.538547	0.116969	0.446830
	B480	B	0.150695	0.536838	0.546606
	B481	B	0.924103	0.432426	0.549745
	B482	B	0.476881	0.531574	0.547427
	B483	B	0.585358	0.418660	0.534451
	B484	B	0.483708	0.865370	0.552792
	B485	B	0.602521	0.094515	0.562913
	O486	O	0.656279	0.127616	0.566021
	O487	O	0.429698	0.835407	0.550516
	O488	O	0.888419	0.451143	0.545449
	O489	O	0.180219	0.513862	0.547862
	O490	O	0.561474	0.363184	0.532749
	O491	O	0.499390	0.583653	0.546860
	O492	O	0.180696	0.592127	0.545688
	O493	O	0.895329	0.380823	0.553794
	O494	O	0.506285	0.835143	0.554222
	O495	O	0.578265	0.121572	0.559726
	O496	O	0.423755	0.509160	0.548106
	O497	O	0.637546	0.438798	0.534909
	C498	C	0.983333	0.459435	0.551803
	C499	C	0.091957	0.512260	0.547913
	C500	C	0.555222	0.446562	0.536344
	C501	C	0.504648	0.500938	0.543544
	C502	C	0.570854	0.035443	0.561147
	C503	C	0.515252	0.925727	0.555362
	C504	C	0.515848	0.007306	0.555919
	C505	C	0.570814	0.953610	0.561679
	C506	C	1.012824	0.432469	0.555255
	C507	C	0.061723	0.537548	0.541507
	C508	C	0.583276	0.501171	0.537093
	C509	C	0.477027	0.446795	0.541440
	C510	C	0.065884	0.459644	0.552995
	C511	C	1.009670	0.511959	0.545541
	C512	C	0.488124	0.952997	0.551326
	C513	C	0.597044	0.007248	0.564162
	C514	C	0.557701	0.527521	0.541192
	C515	C	0.502247	0.419635	0.538111
	C516	C	0.663335	0.175601	0.564577
	C517	C	0.419247	0.785568	0.550484
	C518	C	0.839102	0.408050	0.544142
	C519	C	0.229153	0.553712	0.545835
	C520	C	0.600271	0.352175	0.537330
	C521	C	0.462257	0.596530	0.547366
	C522	C	0.229549	0.600638	0.546129
	C523	C	0.843065	0.365303	0.548422
	C524	C	0.466905	0.786170	0.553702
	C525	C	0.615081	0.171397	0.555574
	C526	C	0.413970	0.549293	0.545306
	C527	C	0.647590	0.398613	0.539040
	C528	C	0.708746	0.222610	0.566993
	C529	C	0.374519	0.740566	0.545067
	C530	C	0.791187	0.405180	0.540516
	C531	C	0.272958	0.550546	0.544977
	C532	C	0.600825	0.307563	0.541529
	C533	C	0.465659	0.643657	0.549100
	C534	C	0.276286	0.645358	0.547231
	C535	C	0.800906	0.317734	0.553307
	C536	C	0.469348	0.742058	0.554550
	C537	C	0.609037	0.213221	0.551867
	C538	C	0.369367	0.548557	0.545747
	C539	C	0.696702	0.403704	0.545061
	C540	C	0.705396	0.266876	0.559331
	C541	C	0.372080	0.693426	0.548845
	C542	C	0.746473	0.357835	0.546179
	C543	C	0.322429	0.598033	0.548464
	C544	C	0.648923	0.309276	0.545725
	C545	C	0.420009	0.645953	0.552597
	C546	C	0.324090	0.646228	0.547838
	C547	C	0.752512	0.315409	0.553839
	C548	C	0.421085	0.694071	0.550366
	C549	C	0.653848	0.263586	0.552404
	C550	C	0.369095	0.596013	0.548100
	C551	C	0.698094	0.358353	0.545794
	H552	H	0.478492	0.378826	0.540275
	H553	H	0.576101	0.569024	0.546726
	H554	H	0.640591	0.028303	0.567105
	H555	H	0.444830	0.932026	0.544978
	H556	H	0.988111	0.531434	0.539449
	H557	H	0.087826	0.441972	0.562108
	H558	H	0.433415	0.423511	0.540305
	H559	H	0.623797	0.521841	0.533910
	H560	H	0.080679	0.577998	0.538599
	H561	H	0.995313	0.392137	0.552183
	H562	H	0.588362	0.929604	0.561141
	H563	H	0.493645	0.025427	0.552752
	H564	H	0.564392	0.276672	0.549977
	H565	H	0.504426	0.675061	0.549487
	H566	H	0.742013	0.219958	0.577034
	H567	H	0.336419	0.738047	0.539534
	H568	H	0.789754	0.439557	0.534387
	H569	H	0.273133	0.516236	0.550474
	H570	H	0.331835	0.511318	0.540778
	H571	H	0.727087	0.442620	0.542699
	H572	H	0.270175	0.678401	0.545370
	H573	H	0.808652	0.287229	0.552258
	H574	H	0.507063	0.745131	0.557066
	H575	H	0.570054	0.204324	0.550613
	B576	B	0.127468	0.583965	0.650603
	B577	B	0.898630	0.466072	0.643494
	B578	B	0.465632	0.593112	0.654641
	B579	B	0.569471	0.471832	0.640066
	B580	B	0.459702	0.915273	0.658007
	B581	B	0.560784	0.139067	0.649751
	O582	O	0.614264	0.165721	0.655048
	O583	O	0.406401	0.885771	0.657720
	O584	O	0.867887	0.489417	0.641662
	O585	O	0.159442	0.561853	0.651769
	O586	O	0.550304	0.420426	0.646553
	O587	O	0.486836	0.644573	0.653976
	O588	O	0.158302	0.638685	0.654299
	O589	O	0.869491	0.414311	0.647379
	O590	O	0.483769	0.887335	0.663415
	O591	O	0.540152	0.169457	0.646200
	O592	O	0.414608	0.571087	0.664469
	O593	O	0.620954	0.493458	0.638238
	C594	C	0.956204	0.494690	0.639360
	C595	C	0.066550	0.554179	0.644654
	C596	C	0.538561	0.500936	0.638674
	C597	C	0.491361	0.559651	0.650060
	C598	C	0.535154	0.079511	0.644092
	C599	C	0.484883	0.970160	0.651328
	C600	C	0.480567	0.048010	0.637320
	C601	C	0.539443	1.001693	0.652556
	C602	C	0.987177	0.471841	0.639505
	C603	C	0.036438	0.577432	0.642759
	C604	C	0.568189	0.555727	0.642970
	C605	C	0.461874	0.507486	0.643495
	C606	C	0.041164	0.500791	0.642212
	C607	C	0.983300	0.547094	0.639370
	C608	C	0.457280	0.995018	0.641554
	C609	C	0.565140	0.054764	0.651235
	C610	C	0.545542	0.585267	0.649504
	C611	C	0.483420	0.476827	0.636898
	C612	C	0.626457	0.217940	0.654746
	C613	C	0.396359	0.835647	0.659016
	C614	C	0.818686	0.450511	0.643171
	C615	C	0.207975	0.600567	0.654612
	C616	C	0.588092	0.408727	0.641587
	C617	C	0.447932	0.654666	0.658860
	C618	C	0.208826	0.647559	0.654839
	C619	C	0.818580	0.403966	0.647819
	C620	C	0.443091	0.836975	0.663224
	C621	C	0.579378	0.217493	0.649046
	C622	C	0.403097	0.609882	0.662562
	C623	C	0.631780	0.453931	0.638392
	C624	C	0.674578	0.262207	0.658168
	C625	C	0.351939	0.790414	0.654525
	C626	C	0.774656	0.453163	0.640474
	C627	C	0.254450	0.598991	0.657931
	C628	C	0.583013	0.360395	0.642776
	C629	C	0.450206	0.699656	0.666679
	C630	C	0.252958	0.693911	0.656098
	C631	C	0.775366	0.360063	0.653618
	C632	C	0.446584	0.794366	0.662013
	C633	C	0.580042	0.264004	0.647461
	C634	C	0.356226	0.605995	0.660866
	C635	C	0.676796	0.454479	0.637830
	C636	C	0.675956	0.309927	0.650758
	C637	C	0.351813	0.744081	0.659664
	C638	C	0.727420	0.407674	0.645516
	C639	C	0.302730	0.644932	0.661085
	C640	C	0.629627	0.361125	0.644926
	C641	C	0.401723	0.698790	0.665289
	C642	C	0.302380	0.694915	0.660361
	C643	C	0.724936	0.358855	0.649575
	C644	C	0.400550	0.745682	0.664114
	C645	C	0.628257	0.311782	0.646362
	C646	C	0.351754	0.649424	0.663319
	C647	C	0.677935	0.407013	0.640953
	H648	H	0.457448	0.435250	0.637359
	H649	H	0.566027	0.627981	0.650839
	H650	H	0.606316	0.080447	0.663446
	H651	H	0.415149	0.972112	0.639239
	H652	H	0.961477	0.566884	0.636305
	H653	H	0.064179	0.480356	0.642579
	H654	H	0.420169	0.487517	0.639204
	H655	H	0.612587	0.578556	0.646974
	H656	H	0.055878	0.618449	0.643978
	H657	H	0.962398	0.428335	0.634618
	H658	H	0.561863	0.982856	0.657337
	H659	H	0.458141	0.065246	0.629825
	H660	H	0.545970	0.328921	0.645282
	H661	H	0.487648	0.731330	0.666545
	H662	H	0.705949	0.256925	0.665353
	H663	H	0.318548	0.795037	0.643448
	H664	H	0.775564	0.485055	0.630406
	H665	H	0.256256	0.565534	0.668414
	H666	H	0.324525	0.567871	0.660302
	H667	H	0.712286	0.491038	0.637134
	H668	H	0.251945	0.727855	0.651733
	H669	H	0.780853	0.325904	0.656881
	H670	H	0.483857	0.800277	0.662803
	H671	H	0.544857	0.264054	0.646168
	B672	B	0.089703	0.603332	0.751042
	B673	B	0.860089	0.488083	0.737988
	B674	B	0.422010	0.604642	0.759459
	B675	B	0.536226	0.493987	0.746171
	B676	B	0.417533	0.932387	0.746819
	B677	B	0.528781	0.161982	0.746693
	O678	O	0.582833	0.191088	0.746667
	O679	O	0.362143	0.899272	0.738791
	O680	O	0.829320	0.508673	0.740349
	O681	O	0.120521	0.580310	0.756957
	O682	O	0.510468	0.442087	0.742843
	O683	O	0.445613	0.657763	0.758792
	O684	O	0.119725	0.653730	0.752232
	O685	O	0.827860	0.435314	0.732775
	O686	O	0.440048	0.901938	0.753223
	O687	O	0.503814	0.188784	0.748305
	O688	O	0.370135	0.583619	0.759890
	O689	O	0.588808	0.517175	0.743826
	C690	C	0.918796	0.520570	0.735274
	C691	C	0.029408	0.574868	0.742449
	C692	C	0.502614	0.520435	0.747656
	C693	C	0.450911	0.575185	0.758858
	C694	C	0.501069	0.102597	0.748718
	C695	C	0.446513	0.990953	0.744010
	C696	C	0.447400	0.072936	0.750567
	C697	C	0.501666	1.019971	0.746187
	C698	C	0.945734	0.495090	0.728679
	C699	C	0.002609	0.600945	0.751425
	C700	C	0.530223	0.574620	0.759324
	C701	C	0.422524	0.521007	0.746524
	C702	C	0.001181	0.523024	0.732991
	C703	C	0.948647	0.574837	0.743258
	C704	C	0.420552	1.019041	0.748224
	C705	C	0.527157	0.074107	0.747564
	C706	C	0.506299	0.602200	0.765916
	C707	C	0.446885	0.495038	0.740097
	C708	C	0.591659	0.239221	0.746971
	C709	C	0.354003	0.852603	0.745650
	C710	C	0.777621	0.468920	0.740208
	C711	C	0.171313	0.620711	0.755333
	C712	C	0.550335	0.429634	0.747068
	C713	C	0.406048	0.668534	0.757915
	C714	C	0.171792	0.666774	0.757215
	C715	C	0.780066	0.424191	0.735663
	C716	C	0.400418	0.853094	0.754094
	C717	C	0.545237	0.240267	0.746419
	C718	C	0.359507	0.622210	0.756706
	C719	C	0.597392	0.475959	0.746190
	C720	C	0.639970	0.284639	0.749152
	C721	C	0.308425	0.806952	0.743083
	C722	C	0.737935	0.473138	0.745054
	C723	C	0.214388	0.617756	0.755003
	C724	C	0.546477	0.381594	0.748965
	C725	C	0.406772	0.714520	0.757932
	C726	C	0.216349	0.714197	0.756385
	C727	C	0.734579	0.380296	0.737360
	C728	C	0.406179	0.812452	0.762298
	C729	C	0.543130	0.284886	0.747055
	C730	C	0.312359	0.619676	0.753115
	C731	C	0.641483	0.474371	0.745115
	C732	C	0.639945	0.331050	0.747178
	C733	C	0.310366	0.762195	0.751799
	C734	C	0.687152	0.425214	0.743928
	C735	C	0.262442	0.665357	0.754594
	C736	C	0.591610	0.379612	0.746842
	C737	C	0.360508	0.716120	0.756724
	C738	C	0.262208	0.713156	0.753179
	C739	C	0.687736	0.379087	0.742806
	C740	C	0.359026	0.762211	0.755897
	C741	C	0.591391	0.331829	0.749432
	C742	C	0.311867	0.666026	0.754418
	C743	C	0.639681	0.426577	0.745115
	H744	H	0.423557	0.453251	0.736047
	H745	H	0.526996	0.642403	0.775069
	H746	H	0.569181	0.094832	0.747591
	H747	H	0.378597	0.996782	0.749444
	H748	H	0.928183	0.595955	0.748355
	H749	H	0.020581	0.501020	0.728060
	H750	H	0.381150	0.496565	0.745929
	H751	H	0.571796	0.592927	0.771084
	H752	H	0.024219	0.642582	0.756528
	H753	H	0.926162	0.453013	0.723943
	H754	H	0.525869	1.001818	0.749262
	H755	H	0.427004	0.092615	0.757244
	H756	H	0.508891	0.351316	0.752977
	H757	H	0.440417	0.749658	0.758487
	H758	H	0.672779	0.279935	0.748689
	H759	H	0.274467	0.810392	0.737612
	H760	H	0.744267	0.513277	0.749659
	H761	H	0.210139	0.579638	0.756029
	H762	H	0.276017	0.581975	0.751023
	H763	H	0.675856	0.510805	0.741529
	H764	H	0.212725	0.747723	0.762131
	H765	H	0.734097	0.345982	0.733162
	H766	H	0.446902	0.824433	0.773238
	H767	H	0.507937	0.282114	0.749686
	B768	B	0.035498	0.574712	0.847621
	B769	B	0.806409	0.453870	0.838591
	B770	B	0.361541	0.564314	0.852500
	B771	B	0.473700	0.452862	0.848519
	B772	B	0.371488	0.897169	0.859800
	B773	B	0.478194	0.123219	0.850725
	O774	O	0.531311	0.154624	0.850219
	O775	O	0.320294	0.868375	0.865287
	O776	O	0.774983	0.476325	0.834336
	O777	O	0.064800	0.552709	0.841627
	O778	O	0.453157	0.401278	0.848090
	O779	O	0.386124	0.618647	0.850744
	O780	O	0.069211	0.627785	0.854916
	O781	O	0.776162	0.401658	0.839155
	O782	O	0.393044	0.866657	0.859064
	O783	O	0.456343	0.154135	0.849007
	O784	O	0.309095	0.541221	0.854835
	O785	O	0.528488	0.475776	0.846569
	C786	C	0.865219	0.488234	0.842283
	C787	C	-0.024837	0.545149	0.849174
	C788	C	0.445260	0.480378	0.852767
	C789	C	0.390713	0.534364	0.852903
	C790	C	0.449356	0.063504	0.850273
	C791	C	0.401549	0.954755	0.858283
	C792	C	0.396663	0.034297	0.854547
	C793	C	0.453255	0.985035	0.850823
	C794	C	0.896500	0.464933	0.844261
	C795	C	-0.054104	0.569932	0.851195
	C796	C	0.468864	0.532823	0.846368
	C797	C	0.368172	0.483338	0.863227
	C798	C	-0.049254	0.491726	0.848881
	C799	C	0.892923	0.542759	0.845644
	C800	C	0.374606	0.982504	0.861411
	C801	C	0.477117	0.037025	0.846726
	C802	C	0.441589	0.557718	0.844520
	C803	C	0.393929	0.455487	0.862800
	C804	C	0.542244	0.202971	0.847337
	C805	C	0.310106	0.819321	0.865800
	C806	C	0.726736	0.436503	0.837672
	C807	C	0.118010	0.592794	0.845034
	C808	C	0.494024	0.391503	0.848351
	C809	C	0.346422	0.628069	0.855459
	C810	C	0.120298	0.638851	0.852965
	C811	C	0.727486	0.393412	0.840561
	C812	C	0.354560	0.816450	0.859102
	C813	C	0.497109	0.203790	0.848167
	C814	C	0.300269	0.581670	0.856229
	C815	C	0.540267	0.438424	0.845650
	C816	C	0.589406	0.248386	0.848301
	C817	C	0.265054	0.777015	0.870509
	C818	C	0.681521	0.438238	0.839148
	C819	C	0.158969	0.586140	0.847073
	C820	C	0.494440	0.347456	0.849405
	C821	C	0.349971	0.674600	0.858159
	C822	C	0.164946	0.684230	0.858008
	C823	C	0.683130	0.347812	0.842636
	C824	C	0.354840	0.771556	0.857551
	C825	C	0.495629	0.249189	0.848066
	C826	C	0.255877	0.581509	0.856105
	C827	C	0.586474	0.441220	0.845739
	C828	C	0.590816	0.297052	0.849767
	C829	C	0.261808	0.727672	0.864486
	C830	C	0.636945	0.394829	0.846392
	C831	C	0.209414	0.631793	0.854138
	C832	C	0.540767	0.346457	0.848192
	C833	C	0.305170	0.677135	0.860126
	C834	C	0.212374	0.681047	0.860310
	C835	C	0.637403	0.347138	0.848304
	C836	C	0.308974	0.725710	0.860938
	C837	C	0.542474	0.296913	0.849396
	C838	C	0.255524	0.629628	0.855510
	C839	C	0.587622	0.393639	0.843518
	H840	H	0.373897	0.416089	0.869793
	H841	H	0.460723	0.598805	0.839856
	H842	H	0.520245	0.057020	0.846579
	H843	H	0.334994	0.960304	0.867478
	H844	H	0.870129	0.560449	0.849590
	H845	H	-0.028477	0.474218	0.844575
	H846	H	0.329785	0.460966	0.870991
	H847	H	0.510503	0.554587	0.842268
	H848	H	-0.034293	0.610266	0.854918
	H849	H	0.877102	0.423581	0.842499
	H850	H	0.477746	0.967522	0.851801
	H851	H	0.371242	0.049700	0.854366
	H852	H	0.458117	0.313986	0.849947
	H853	H	0.387177	0.707847	0.855895
	H854	H	0.622692	0.245036	0.845625
	H855	H	0.235748	0.785075	0.877587
	H856	H	0.684985	0.474932	0.838683
	H857	H	0.150680	0.546789	0.841037
	H858	H	0.221363	0.545613	0.856715
	H859	H	0.621380	0.479591	0.848530
	H860	H	0.165353	0.719794	0.863370
	H861	H	0.686790	0.316089	0.837208
	H862	H	0.390941	0.773585	0.855176
	H863	H	0.455683	0.239744	0.845659
	B864	B	0.118767	0.646148	0.962151
	B865	B	0.893810	0.528380	0.952106
	B866	B	0.446813	0.638447	0.954943
	B867	B	0.560637	0.521886	0.956344
	B868	B	0.456977	0.968988	0.953023
	B869	B	0.560627	0.193146	0.945492
	O870	O	0.613720	0.221683	0.942195
	O871	O	0.403385	0.940993	0.956812
	O872	O	0.861911	0.549863	0.953303
	O873	O	0.145758	0.620196	0.959850
	O874	O	0.536131	0.468049	0.952614
	O875	O	0.469597	0.690168	0.950567
	O876	O	0.149833	0.697247	0.958769
	O877	O	0.863770	0.474879	0.946771
	O878	O	0.475227	0.936048	0.946878
	O879	O	0.537382	0.221978	0.946689
	O880	O	0.391628	0.613628	0.955760
	O881	O	0.611469	0.544064	0.955586
	C882	C	0.954076	0.560460	0.955768
	C883	C	0.061230	0.615601	0.964401
	C884	C	0.528269	0.550473	0.948850
	C885	C	0.475277	0.605822	0.953077
	C886	C	0.533277	0.134082	0.947673
	C887	C	0.486731	1.028613	0.955784
	C888	C	0.478151	0.103014	0.946619
	C889	C	0.540391	1.058756	0.953687
	C890	C	0.981114	0.534388	0.951633
	C891	C	0.032195	0.639299	0.967595
	C892	C	0.551803	0.604178	0.944565
	C893	C	0.449340	0.553238	0.952033
	C894	C	0.035256	0.562626	0.955877
	C895	C	0.978680	0.613768	0.963673
	C896	C	0.456206	1.052096	0.950446
	C897	C	0.563110	0.109992	0.953930
	C898	C	0.527755	0.632480	0.947978
	C899	C	0.475783	0.525415	0.952193
	C900	C	0.624432	0.272035	0.941328
	C901	C	0.390111	0.891185	0.952519
	C902	C	0.811632	0.508079	0.949405
	C903	C	0.196591	0.659698	0.960997
	C904	C	0.574857	0.458082	0.949970
	C905	C	0.430209	0.701142	0.953393
	C906	C	0.199148	0.705357	0.960264
	C907	C	0.811350	0.461195	0.942874
	C908	C	0.432287	0.886907	0.946703
	C909	C	0.576578	0.271050	0.941796
	C910	C	0.384789	0.655534	0.955588
	C911	C	0.621133	0.503999	0.951496
	C912	C	0.672201	0.318060	0.944201
	C913	C	0.342000	0.847476	0.953325
	C914	C	0.767673	0.511524	0.949640
	C915	C	0.238181	0.654924	0.958126
	C916	C	0.575782	0.412694	0.950170
	C917	C	0.433365	0.748129	0.957748
	C918	C	0.243968	0.750186	0.958820
	C919	C	0.766970	0.413829	0.942600
	C920	C	0.431440	0.841565	0.946765
	C921	C	0.573694	0.316106	0.943143
	C922	C	0.337843	0.655032	0.956872
	C923	C	0.668700	0.507772	0.952506
	C924	C	0.671979	0.367105	0.944174
	C925	C	0.338296	0.796980	0.955505
	C926	C	0.720155	0.463018	0.948062
	C927	C	0.285915	0.700774	0.959024
	C928	C	0.623507	0.413930	0.947523
	C929	C	0.385578	0.748264	0.956373
	C930	C	0.290112	0.750505	0.957994
	C931	C	0.720180	0.414823	0.944642
	C932	C	0.386525	0.796794	0.951293
	C933	C	0.621744	0.364607	0.943334
	C934	C	0.335941	0.699858	0.955448
	C935	C	0.670613	0.461516	0.949717
	H936	H	0.454692	0.484764	0.954522
	H937	H	0.550437	0.674605	0.949924
	H938	H	0.604938	0.135029	0.956532
	H939	H	0.414876	1.029088	0.952183
	H940	H	0.957315	0.633843	0.964473
	H941	H	0.053481	0.539270	0.953451
	H942	H	0.408103	0.533969	0.949084
	H943	H	0.594231	0.629373	0.945294
	H944	H	0.050844	0.681011	0.971705
	H945	H	0.961139	0.494304	0.946800
	H946	H	0.557382	1.035301	0.951426
	H947	H	0.454134	0.121185	0.945183
	H948	H	0.538768	0.377950	0.948734
	H949	H	0.470556	0.783042	0.962310
	H950	H	0.707352	0.315480	0.947820
	H951	H	0.307331	0.850482	0.950610
	H952	H	0.772494	0.547660	0.957835
	H953	H	0.229181	0.617046	0.950241
	H954	H	0.302156	0.619607	0.956206
	H955	H	0.704908	0.546137	0.958452
	H956	H	0.238999	0.782870	0.959086
	H957	H	0.774063	0.381940	0.939575
	H958	H	0.466986	0.841257	0.947151
	H959	H	0.537248	0.312498	0.934631
